Version 4
SHEET 1 4052 1516
WIRE 944 -848 768 -848
WIRE 1216 -848 944 -848
WIRE 1408 -848 1216 -848
WIRE 944 -816 944 -848
WIRE 1408 -800 1408 -848
WIRE 768 -672 768 -848
WIRE 944 -672 944 -736
WIRE 1408 -672 1408 -720
WIRE 1216 -656 1216 -848
WIRE 1408 -544 1408 -592
WIRE 944 -512 944 -592
WIRE 768 -400 768 -608
WIRE 944 -400 944 -432
WIRE 944 -400 768 -400
WIRE 1216 -400 1216 -592
WIRE 1408 -400 1408 -464
WIRE 1408 -400 1216 -400
WIRE 944 -352 944 -400
WIRE 1408 -320 1408 -400
WIRE 1616 -320 1408 -320
WIRE -352 -288 -352 -384
WIRE -128 -288 -128 -384
WIRE 96 -288 96 -384
WIRE 320 -288 320 -384
WIRE 1616 -208 1616 -320
WIRE 2048 -208 1616 -208
WIRE 2224 -208 2112 -208
WIRE 1488 -144 1488 -208
WIRE 1808 -128 1728 -128
WIRE 1856 -128 1808 -128
WIRE 1808 -48 1808 -64
WIRE 1808 -48 1728 -48
WIRE 1856 -48 1808 -48
WIRE 1728 -16 1728 -48
WIRE 1488 0 1488 -64
WIRE 1488 112 1488 64
WIRE 1728 192 1728 64
WIRE 1056 512 1056 400
WIRE 2576 544 2496 544
WIRE 2720 544 2656 544
WIRE 1264 656 1200 656
WIRE 1536 672 1328 672
WIRE 1824 672 1728 672
WIRE 1952 672 1904 672
WIRE 2032 672 1952 672
WIRE 688 688 544 688
WIRE 768 688 688 688
WIRE 864 688 832 688
WIRE 1056 688 1056 592
WIRE 1056 688 944 688
WIRE 1264 688 1056 688
WIRE 2208 688 2096 688
WIRE 2240 688 2208 688
WIRE 2352 688 2304 688
WIRE 2496 688 2496 544
WIRE 2496 688 2432 688
WIRE 2512 688 2496 688
WIRE 2608 688 2592 688
WIRE 2624 688 2608 688
WIRE 2720 688 2720 544
WIRE 2720 688 2704 688
WIRE 2800 688 2720 688
WIRE 2880 688 2800 688
WIRE 2032 704 2000 704
WIRE -752 720 -752 656
WIRE -576 720 -752 720
WIRE -480 720 -576 720
WIRE -304 720 -304 656
WIRE -304 720 -400 720
WIRE -176 720 -304 720
WIRE -112 720 -176 720
WIRE 112 720 -48 720
WIRE 2800 736 2800 688
WIRE 3072 736 3008 736
WIRE 688 752 688 688
WIRE 1056 752 1056 688
WIRE 1728 752 1728 672
WIRE 2608 752 2608 688
WIRE 2720 752 2720 688
WIRE 2720 752 2608 752
WIRE 3072 752 3072 736
WIRE -304 768 -304 720
WIRE -176 768 -176 720
WIRE -752 784 -752 720
WIRE -576 784 -576 720
WIRE 112 784 112 720
WIRE 2880 784 2880 768
WIRE 3008 784 3008 736
WIRE 3008 784 2880 784
WIRE 1200 800 1200 656
WIRE 1296 800 1200 800
WIRE 1536 800 1536 672
WIRE 1536 800 1360 800
WIRE 1952 800 1952 672
WIRE 2032 800 1952 800
WIRE 2208 800 2208 688
WIRE 2208 800 2096 800
WIRE 2720 800 2720 752
WIRE 2880 800 2880 784
WIRE 1296 832 1296 800
WIRE 1376 832 1296 832
WIRE 1472 832 1440 832
WIRE 3008 832 3008 784
WIRE 1472 848 1472 832
WIRE 1536 848 1536 800
WIRE 1536 848 1472 848
WIRE 2496 848 2496 688
WIRE 3072 848 3072 832
WIRE 3152 848 3072 848
WIRE 1296 864 1296 832
WIRE 1376 864 1296 864
WIRE 1472 864 1472 848
WIRE 1472 864 1440 864
WIRE 3072 864 3072 848
WIRE 688 880 688 832
WIRE 1952 896 1952 800
WIRE 2016 896 1952 896
WIRE 2208 896 2208 800
WIRE 2208 896 2096 896
WIRE 2800 896 2800 816
WIRE 2880 896 2880 880
WIRE 2880 896 2800 896
WIRE 1168 912 1120 912
WIRE 1296 912 1296 864
WIRE 1296 912 1248 912
WIRE 1408 912 1296 912
WIRE 1440 912 1408 912
WIRE 1536 912 1536 848
WIRE 1536 912 1520 912
WIRE 1568 912 1536 912
WIRE 1728 912 1728 816
WIRE 1728 912 1648 912
WIRE 2880 912 2880 896
WIRE 112 944 112 864
WIRE 1120 960 1120 912
WIRE 3008 960 3008 912
WIRE 3072 960 3072 944
WIRE 3072 960 3008 960
WIRE 3072 976 3072 960
WIRE 2496 992 2496 928
WIRE 2496 992 2112 992
WIRE 2704 992 2496 992
WIRE -752 1024 -752 848
WIRE -576 1024 -576 864
WIRE -576 1024 -752 1024
WIRE -304 1024 -304 832
WIRE -304 1024 -576 1024
WIRE -176 1024 -176 832
WIRE -176 1024 -304 1024
WIRE 2368 1024 2272 1024
WIRE 1408 1040 1408 912
WIRE 1520 1040 1408 1040
WIRE 1728 1040 1728 912
WIRE 1728 1040 1600 1040
WIRE 2112 1040 2112 992
WIRE 2112 1040 2064 1040
WIRE 2160 1040 2112 1040
WIRE -576 1056 -576 1024
WIRE 2272 1056 2272 1024
WIRE 2624 1056 2528 1056
WIRE 1120 1072 1120 1024
WIRE 2064 1104 2064 1040
WIRE 2160 1104 2160 1040
WIRE 2368 1104 2368 1024
WIRE 2704 1104 2704 992
WIRE 2272 1152 2272 1120
WIRE 2528 1152 2528 1120
WIRE 2624 1152 2624 1120
WIRE 2304 1216 2272 1216
WIRE 2368 1216 2368 1168
WIRE 2368 1216 2304 1216
WIRE 2560 1216 2528 1216
WIRE 2624 1216 2560 1216
WIRE 2704 1216 2704 1168
WIRE 2704 1216 2624 1216
WIRE 2064 1264 2064 1168
WIRE 2160 1264 2160 1168
WIRE 2160 1264 2064 1264
WIRE 2304 1264 2304 1216
WIRE 2304 1264 2160 1264
WIRE 2560 1264 2560 1216
WIRE 2560 1264 2304 1264
WIRE 2304 1280 2304 1264
FLAG -352 272 0
FLAG -128 272 0
FLAG 96 272 0
FLAG 320 272 0
FLAG -352 -384 Bridge1
IOPIN -352 -384 Out
FLAG -128 -384 Bridge2
IOPIN -128 -384 Out
FLAG 96 -384 Neck1
IOPIN 96 -384 Out
FLAG 320 -384 Neck2
IOPIN 320 -384 Out
FLAG 1920 -592 0
FLAG 2208 -592 0
FLAG 944 -352 0
FLAG 1488 112 0
FLAG 1728 192 0
FLAG 2224 -208 ODin
FLAG 688 880 0
FLAG 544 688 ODin
FLAG 1056 400 Vbias
FLAG 1056 816 0
FLAG 1120 1072 0
FLAG 112 944 0
FLAG -304 656 Vcc
FLAG -752 656 Vbias
FLAG -576 1056 0
FLAG 1296 704 0
FLAG 1296 640 Vcc
FLAG 2064 720 0
FLAG 2064 656 Vcc
FLAG 2720 864 0
FLAG 2880 976 0
FLAG 3072 976 0
FLAG 2000 704 Vbias
FLAG 2304 1280 0
SYMBOL Misc\\signal -128 -304 R0
WINDOW 123 0 0 Left 2
WINDOW 39 24 44 Left 2
SYMATTR SpiceLine Rser=0
SYMATTR InstName V1
SYMATTR Value SINE(0 75m 440)
SYMBOL Misc\\signal -128 -224 R0
WINDOW 123 0 0 Left 2
WINDOW 39 0 0 Left 2
SYMATTR InstName V2
SYMATTR Value SINE(0 56m 880)
SYMBOL Misc\\signal -128 -144 R0
WINDOW 123 0 0 Left 2
WINDOW 39 0 0 Left 2
SYMATTR InstName V3
SYMATTR Value SINE(0 43m 1320)
SYMBOL Misc\\signal -128 -64 R0
WINDOW 123 0 0 Left 2
WINDOW 39 0 0 Left 2
SYMATTR InstName V4
SYMATTR Value SINE(0 32m 1760)
SYMBOL Misc\\signal -128 16 R0
WINDOW 123 0 0 Left 2
WINDOW 39 0 0 Left 2
SYMATTR InstName V5
SYMATTR Value SINE(0 24m 2200)
SYMBOL Misc\\signal -128 96 R0
WINDOW 123 0 0 Left 2
WINDOW 39 0 0 Left 2
SYMATTR InstName V6
SYMATTR Value SINE(0 19m 2640)
SYMBOL Misc\\signal -128 176 R0
WINDOW 123 0 0 Left 2
WINDOW 39 0 0 Left 2
SYMATTR InstName V7
SYMATTR Value SINE(0 16m 3080)
SYMBOL Misc\\signal -352 -304 R0
WINDOW 123 0 0 Left 2
WINDOW 39 24 44 Left 2
SYMATTR SpiceLine Rser=0
SYMATTR InstName V8
SYMATTR Value SINE(0 73m 440)
SYMBOL Misc\\signal -352 -224 R0
WINDOW 123 0 0 Left 2
WINDOW 39 0 0 Left 2
SYMATTR InstName V9
SYMATTR Value SINE(0 54m 880)
SYMBOL Misc\\signal -352 -144 R0
WINDOW 123 0 0 Left 2
WINDOW 39 0 0 Left 2
SYMATTR InstName V10
SYMATTR Value SINE(0 40m 1320)
SYMBOL Misc\\signal -352 -64 R0
WINDOW 123 0 0 Left 2
WINDOW 39 0 0 Left 2
SYMATTR InstName V11
SYMATTR Value SINE(0 32m 1760)
SYMBOL Misc\\signal -352 16 R0
WINDOW 123 0 0 Left 2
WINDOW 39 0 0 Left 2
SYMATTR InstName V12
SYMATTR Value SINE(0 25m 2200)
SYMBOL Misc\\signal -352 96 R0
WINDOW 123 0 0 Left 2
WINDOW 39 0 0 Left 2
SYMATTR InstName V13
SYMATTR Value SINE(0 22m 2640)
SYMBOL Misc\\signal -352 176 R0
WINDOW 123 0 0 Left 2
WINDOW 39 0 0 Left 2
SYMATTR InstName V14
SYMATTR Value SINE(0 19m 3080)
SYMBOL Misc\\signal 320 -304 R0
SYMATTR InstName V15
SYMBOL Misc\\signal 320 -224 R0
SYMATTR InstName V16
SYMBOL Misc\\signal 320 -144 R0
SYMATTR InstName V17
SYMBOL Misc\\signal 320 -64 R0
SYMATTR InstName V18
SYMBOL Misc\\signal 320 16 R0
SYMATTR InstName V19
SYMBOL Misc\\signal 320 96 R0
SYMATTR InstName V20
SYMBOL Misc\\signal 320 176 R0
SYMATTR InstName V21
SYMBOL Misc\\signal 96 -304 R0
SYMATTR InstName V22
SYMBOL Misc\\signal 96 -224 R0
SYMATTR InstName V23
SYMBOL Misc\\signal 96 -144 R0
SYMATTR InstName V24
SYMBOL Misc\\signal 96 -64 R0
SYMATTR InstName V25
SYMBOL Misc\\signal 96 16 R0
SYMATTR InstName V26
SYMBOL Misc\\signal 96 96 R0
SYMATTR InstName V27
SYMBOL Misc\\signal 96 176 R0
SYMATTR InstName V28
SYMBOL bv 944 -528 R0
SYMATTR InstName B1
SYMATTR Value V=V(Bridge1)
SYMBOL bv 1408 -576 R180
WINDOW 0 24 96 Left 2
WINDOW 3 24 16 Left 2
SYMATTR InstName B2
SYMATTR Value V=V(Bridge2)
SYMBOL bv 1920 -688 R0
SYMATTR InstName B3
SYMATTR Value V=V(Neck1)
SYMBOL bv 2208 -688 R0
SYMATTR InstName B4
SYMATTR Value V=V(Neck2)
SYMBOL res 1472 -160 R0
SYMATTR InstName BRTone
SYMATTR Value 500k
SYMBOL res 1712 -32 R0
SYMATTR InstName BRVol
SYMATTR Value 500k
SYMBOL cap 1472 0 R0
SYMATTR InstName C1
SYMATTR Value 22n
SYMATTR SpiceLine V=25 Irms=25 Rser=0
SYMBOL res 928 -832 R0
SYMATTR InstName R3
SYMATTR Value 5.5k
SYMBOL res 1392 -560 R0
SYMATTR InstName R4
SYMATTR Value 5.5k
SYMBOL cap 752 -672 R0
SYMATTR InstName C2
SYMATTR Value 120p
SYMBOL ind 928 -688 R0
SYMATTR InstName L1
SYMATTR Value 2.3H
SYMBOL ind 1392 -816 R0
SYMATTR InstName L2
SYMATTR Value 2.3H
SYMBOL cap 1200 -656 R0
SYMATTR InstName C3
SYMATTR Value 120p
SYMBOL cap 1792 -128 R0
SYMATTR InstName C4
SYMATTR Value .7p
SYMBOL res 1840 -144 R0
SYMATTR InstName R2
SYMATTR Value 330k
SYMBOL res 1712 -144 R0
SYMATTR InstName R1
SYMATTR Value 0
SYMBOL cap 2112 -224 R90
WINDOW 0 0 32 VBottom 2
WINDOW 3 32 32 VTop 2
SYMATTR InstName C5
SYMATTR Value 1µ
SYMBOL cap 832 672 R90
WINDOW 0 0 32 VBottom 2
WINDOW 3 32 32 VTop 2
SYMATTR InstName C6
SYMATTR Value 22n
SYMBOL res 960 672 R90
WINDOW 0 0 56 VBottom 2
WINDOW 3 32 56 VTop 2
SYMATTR InstName R5
SYMATTR Value 1k
SYMBOL res 704 848 R180
WINDOW 0 36 76 Left 2
WINDOW 3 36 40 Left 2
SYMATTR InstName R6
SYMATTR Value 1MEG
SYMBOL res 1072 608 R180
WINDOW 0 36 76 Left 2
WINDOW 3 36 40 Left 2
SYMATTR InstName R7
SYMATTR Value 1MEG
SYMBOL cap 1040 752 R0
SYMATTR InstName C7
SYMATTR Value 33p
SYMBOL Opamps\\LT1001 1296 608 R0
SYMATTR InstName U1
SYMBOL cap 1360 784 R90
WINDOW 0 0 32 VBottom 2
WINDOW 3 32 32 VTop 2
SYMATTR InstName C8
SYMATTR Value 100pF
SYMBOL res 1264 896 R90
WINDOW 0 0 56 VBottom 2
WINDOW 3 32 56 VTop 2
SYMATTR InstName R8
SYMATTR Value 1k
SYMBOL cap 1104 960 R0
SYMATTR InstName C9
SYMATTR Value 220n
SYMBOL res 1536 896 R90
WINDOW 0 0 56 VBottom 2
WINDOW 3 32 56 VTop 2
SYMATTR InstName GAIN
SYMATTR Value 1
SYMBOL voltage 112 768 R0
WINDOW 123 0 0 Left 2
WINDOW 39 0 0 Left 2
SYMATTR InstName V29
SYMATTR Value 9
SYMBOL diode -48 704 R90
WINDOW 0 0 32 VBottom 2
WINDOW 3 32 32 VTop 2
SYMATTR InstName D1
SYMBOL cap -320 768 R0
SYMATTR InstName C10
SYMATTR Value 100n
SYMBOL res -384 704 R90
WINDOW 0 0 56 VBottom 2
WINDOW 3 32 56 VTop 2
SYMATTR InstName R11
SYMATTR Value 22k
SYMBOL res -560 880 R180
WINDOW 0 36 76 Left 2
WINDOW 3 36 40 Left 2
SYMATTR InstName R12
SYMATTR Value 22k
SYMBOL cap -768 784 R0
SYMATTR InstName C11
SYMATTR Value 100µ
SYMBOL cap -192 768 R0
SYMATTR InstName C12
SYMATTR Value 100µ
SYMBOL cap 1712 752 R0
SYMATTR InstName C13
SYMATTR Value 100n
SYMBOL res 1920 656 R90
WINDOW 0 0 56 VBottom 2
WINDOW 3 32 56 VTop 2
SYMATTR InstName R10
SYMATTR Value 10k
SYMBOL Opamps\\LT1001 2064 624 R0
SYMATTR InstName U2
SYMBOL cap 2096 784 R90
WINDOW 0 0 32 VBottom 2
WINDOW 3 32 32 VTop 2
SYMATTR InstName C14
SYMATTR Value 100p
SYMBOL res 2112 880 R90
WINDOW 0 0 56 VBottom 2
WINDOW 3 32 56 VTop 2
SYMATTR InstName R13
SYMATTR Value 250k
SYMBOL cap 2304 672 R90
WINDOW 0 0 32 VBottom 2
WINDOW 3 32 32 VTop 2
SYMATTR InstName C15
SYMATTR Value 2.2µ
SYMBOL res 2448 672 R90
WINDOW 0 0 56 VBottom 2
WINDOW 3 32 56 VTop 2
SYMATTR InstName R14
SYMATTR Value 470
SYMBOL cap 2704 800 R0
SYMATTR InstName C16
SYMATTR Value 22n
SYMBOL res 3056 848 R0
SYMATTR InstName R17
SYMATTR Value 250k
SYMBOL cap 2864 912 R0
SYMATTR InstName C17
SYMATTR Value 22n
SYMBOL diode 2048 1104 R0
SYMATTR InstName D2
SYMBOL diode 2176 1168 R180
WINDOW 0 24 64 Left 2
WINDOW 3 24 0 Left 2
SYMATTR InstName D3
SYMBOL res 3056 736 R0
SYMATTR InstName R18
SYMATTR Value 250k
SYMBOL res 2608 672 R90
WINDOW 0 0 56 VBottom 2
WINDOW 3 32 56 VTop 2
SYMATTR InstName R15
SYMATTR Value 1
SYMBOL res 2720 672 R90
WINDOW 0 0 56 VBottom 2
WINDOW 3 32 56 VTop 2
SYMATTR InstName R19
SYMATTR Value 500k
SYMBOL res 2864 784 R0
SYMATTR InstName R16
SYMATTR Value 250k
SYMBOL res 2864 672 R0
SYMATTR InstName R20
SYMATTR Value 250k
SYMBOL res 1664 896 R90
WINDOW 0 0 56 VBottom 2
WINDOW 3 32 56 VTop 2
SYMATTR InstName R21
SYMATTR Value 500k
SYMBOL cap 3216 832 R90
WINDOW 0 0 32 VBottom 2
WINDOW 3 32 32 VTop 2
SYMATTR InstName C18
SYMATTR Value 1µ
SYMBOL res 2672 528 R90
WINDOW 0 0 56 VBottom 2
WINDOW 3 32 56 VTop 2
SYMATTR InstName R22
SYMATTR Value 10k
SYMBOL res 1616 1024 R90
WINDOW 0 0 56 VBottom 2
WINDOW 3 32 56 VTop 2
SYMATTR InstName R23
SYMATTR Value 125k
SYMBOL diode 1440 816 R90
WINDOW 0 0 32 VBottom 2
WINDOW 3 32 32 VTop 2
SYMATTR InstName D4
SYMBOL diode 1376 880 R270
WINDOW 0 32 32 VTop 2
WINDOW 3 0 32 VBottom 2
SYMATTR InstName D7
SYMBOL diode 2256 1056 R0
SYMATTR InstName D8
SYMBOL diode 2256 1152 R0
SYMATTR InstName D9
SYMBOL diode 2384 1168 R180
WINDOW 0 24 64 Left 2
WINDOW 3 24 0 Left 2
SYMATTR InstName D10
SYMBOL diode 2512 1056 R0
SYMATTR InstName D5
SYMBOL diode 2512 1152 R0
SYMATTR InstName D6
SYMBOL diode 2640 1216 R180
WINDOW 0 24 64 Left 2
WINDOW 3 24 0 Left 2
SYMATTR InstName D11
SYMBOL diode 2640 1120 R180
WINDOW 0 24 64 Left 2
WINDOW 3 24 0 Left 2
SYMATTR InstName D12
SYMBOL res 2480 832 R0
SYMATTR InstName R9
SYMATTR Value 220
SYMBOL cap 2688 1104 R0
SYMATTR InstName C19
SYMATTR Value 1n
SYMBOL res 2784 720 R0
SYMATTR InstName R24
SYMATTR Value 27k
SYMBOL res 2992 816 R0
SYMATTR InstName R25
SYMATTR Value 125k
TEXT -384 304 Left 2 !.tran 0 .04s .02s
TEXT 1800 -152 Left 2 ;Treble Bleed
TEXT 1216 -416 Left 2 ;Bridge Rail (North
TEXT 752 -416 Left 2 ;Bridge Slugs(South)
TEXT 1456 -336 Left 2 ;Red Wire
TEXT 824 -368 Left 2 ;Green/Bare
TEXT 1224 -864 Left 2 ;Black
TEXT 872 -864 Left 2 ;White
